   60
 HF/MINAO Energy:   -245.883387568730
 C          0.0000000000        0.9002900690        2.4632548281
 C          0.8562267366        0.2782049312        2.4632548281
 C         -0.8562267366        0.2782049312        2.4632548281
 C          0.5291772253       -0.7283499657        2.4632548281
 C         -0.5291772253       -0.7283499657        2.4632548281
 C          0.0000000000        1.8005801379        1.9068449658
 C          1.7124534733        0.5564098623        1.9068449658
 C         -1.7124534733        0.5564098623        1.9068449658
 C          1.0583544506       -1.4566999313        1.9068449658
 C         -1.0583544506       -1.4566999313        1.9068449658
 C          0.8562267366        2.0787850691        1.3504351035
 C         -0.8562267366        2.0787850691        1.3504351035
 C          1.7124534733        1.4566999313        1.3504351035
 C         -1.7124534733        1.4566999313        1.3504351035
 C          2.2416306986       -0.1719401033        1.3504351035
 C         -2.2416306986       -0.1719401033        1.3504351035
 C          1.9145811873       -1.1784950001        1.3504351035
 C         -1.9145811873       -1.1784950001        1.3504351035
 C          0.5291772253       -2.1850498970        1.3504351035
 C         -0.5291772253       -2.1850498970        1.3504351035
 C          0.5291772253        2.5289301036        0.4501450345
 C         -0.5291772253        2.5289301036        0.4501450345
 C          2.2416306986        1.2847598280        0.4501450345
 C         -2.2416306986        1.2847598280        0.4501450345
 C          2.5686802099        0.2782049312        0.4501450345
 C         -2.5686802099        0.2782049312        0.4501450345
 C          1.9145811873       -1.7349048625        0.4501450345
 C         -1.9145811873       -1.7349048625        0.4501450345
 C          1.0583544506       -2.3569900003        0.4501450345
 C         -1.0583544506       -2.3569900003        0.4501450345
 C          1.0583544506        2.3569900003       -0.4501450345
 C         -1.0583544506        2.3569900003       -0.4501450345
 C          1.9145811873        1.7349048625       -0.4501450345
 C         -1.9145811873        1.7349048625       -0.4501450345
 C          2.5686802099       -0.2782049312       -0.4501450345
 C         -2.5686802099       -0.2782049312       -0.4501450345
 C          2.2416306986       -1.2847598280       -0.4501450345
 C         -2.2416306986       -1.2847598280       -0.4501450345
 C          0.5291772253       -2.5289301036       -0.4501450345
 C         -0.5291772253       -2.5289301036       -0.4501450345
 C          0.5291772253        2.1850498970       -1.3504351035
 C         -0.5291772253        2.1850498970       -1.3504351035
 C          1.9145811873        1.1784950001       -1.3504351035
 C         -1.9145811873        1.1784950001       -1.3504351035
 C          2.2416306986        0.1719401033       -1.3504351035
 C         -2.2416306986        0.1719401033       -1.3504351035
 C          1.7124534733       -1.4566999313       -1.3504351035
 C         -1.7124534733       -1.4566999313       -1.3504351035
 C          0.8562267366       -2.0787850691       -1.3504351035
 C         -0.8562267366       -2.0787850691       -1.3504351035
 C          1.0583544506        1.4566999313       -1.9068449658
 C         -1.0583544506        1.4566999313       -1.9068449658
 C          1.7124534733       -0.5564098623       -1.9068449658
 C         -1.7124534733       -0.5564098623       -1.9068449658
 C          0.0000000000       -1.8005801379       -1.9068449658
 C          0.5291772253        0.7283499657       -2.4632548281
 C         -0.5291772253        0.7283499657       -2.4632548281
 C          0.8562267366       -0.2782049312       -2.4632548281
 C         -0.8562267366       -0.2782049312       -2.4632548281
 C          0.0000000000       -0.9002900690       -2.4632548281
