    8
 RB3LYP/cc-pV(D+D)Z-PP//RB3LYP/cc-pV(D+D)Z-PP Energy:  -3185.008065113867
 S          0.0000000000       -1.0691341675       -2.5811124670
 S          0.0000000000        2.5810458419       -1.0691399938
 S          0.0000000000        1.0691341675       -2.5811124670
 S          0.0000000000       -2.5810458419       -1.0691399938
 S          0.0000000000       -2.5810329411        1.0691355722
 S          0.0000000000       -1.0691380213        2.5811168886
 S          0.0000000000        1.0691380213        2.5811168886
 S          0.0000000000        2.5810329411        1.0691355722
